Version 4
SHEET 1 1340 680
WIRE -336 -288 -464 -288
WIRE -464 -240 -464 -288
WIRE -336 -240 -336 -288
WIRE -96 -160 -336 -160
WIRE 368 -160 -96 -160
WIRE 528 -160 368 -160
WIRE 736 -160 624 -160
WIRE -336 0 -336 -160
WIRE -96 0 -96 -160
WIRE 0 0 -96 0
WIRE 368 0 368 -160
WIRE 368 0 256 0
WIRE -208 32 -240 32
WIRE -336 80 -400 80
WIRE -240 80 -240 32
WIRE -240 80 -336 80
WIRE -192 80 -240 80
WIRE 0 80 -192 80
WIRE 608 80 608 -112
WIRE 608 80 256 80
WIRE -192 160 -544 160
WIRE 0 160 -192 160
WIRE 736 160 736 -160
WIRE 736 160 256 160
WIRE 832 160 736 160
WIRE 880 160 832 160
WIRE -400 192 -400 80
WIRE 608 240 256 240
WIRE -400 320 -400 272
WIRE 0 320 -400 320
WIRE 384 320 256 320
WIRE 608 320 608 240
WIRE 608 320 512 320
WIRE 720 320 608 320
WIRE 512 416 512 320
WIRE 720 416 720 320
WIRE 384 464 384 320
WIRE 496 464 384 464
WIRE 704 464 592 464
WIRE 832 464 832 160
WIRE 832 464 800 464
WIRE 384 576 384 544
WIRE 0 0 0 0
FLAG -544 160 0
FLAG -464 -240 0
FLAG 384 576 0
FLAG 880 160 Vs
IOPIN 880 160 Out
FLAG -208 32 PWR_STATUS
IOPIN -208 32 Out
SYMBOL SpecialFunctions\\LTC4416 128 160 R0
SYMATTR InstName U1
SYMBOL voltage -336 -144 R180
WINDOW 123 0 0 Left 2
WINDOW 39 0 0 Left 2
SYMATTR InstName V1
SYMATTR Value 10
SYMBOL voltage 384 448 R0
WINDOW 123 0 0 Left 2
WINDOW 39 0 0 Left 2
SYMATTR InstName V2
SYMATTR Value 12
SYMBOL pmos 528 -112 R270
SYMATTR InstName M1
SYMBOL pmos 592 416 R90
SYMATTR InstName M2
SYMBOL pmos 800 416 R90
SYMATTR InstName M3
SYMBOL res -208 64 R0
SYMATTR InstName R1
SYMATTR Value 24k9
SYMBOL res -352 -16 R0
SYMATTR InstName R2
SYMATTR Value 158k
SYMBOL res -384 288 R180
WINDOW 0 36 76 Left 2
WINDOW 3 36 40 Left 2
SYMATTR InstName R3
SYMATTR Value 105k
TEXT -568 568 Left 2 !.dc V1 8 15 1
